api/pglib_opf_case197_snem__api.m
%%%%%%%%%%%%%%%%%%%%%%%%%%%%%%%%%%%%%%%%%%%%%%%%%%%%%%%%%%%%%%%%%%%%%%%%%%%
%%%%                                                                  %%%%%
%%%%    IEEE PES Power Grid Library - Optimal Power Flow - v23.07     %%%%%
%%%%          (https://github.com/power-grid-lib/pglib-opf)           %%%%%
%%%%             Benchmark Group - Active Power Increase              %%%%%
%%%%                         23 - July - 2023                         %%%%%
%%%%                                                                  %%%%%
%%%%%%%%%%%%%%%%%%%%%%%%%%%%%%%%%%%%%%%%%%%%%%%%%%%%%%%%%%%%%%%%%%%%%%%%%%%
function mpc = pglib_opf_case197_snem__api
mpc.version = '2';
mpc.baseMVA = 100.0;

%% bus data
%	bus_i	type	Pd	Qd	Gs	Bs	area	Vm	Va	baseKV	zone	Vmax	Vmin
mpc.bus = [
	2112	 1	 -18.46	 0.00	 0.0	 10.7958302228	 5	    1.00000	    0.00000	 33.0	 1	    1.10000	    0.90000;
	2114	 2	 0.0	 0.0	 0.0	 0.0	 5	    1.00000	    0.00000	 13.8	 1	    1.10000	    0.90000;
	2115	 2	 0.0	 0.0	 0.0	 0.0	 5	    1.00000	    0.00000	 13.8	 1	    1.10000	    0.90000;
	2116	 2	 0.0	 0.0	 0.0	 0.0	 5	    1.00000	    0.00000	 13.8	 1	    1.10000	    0.90000;
	2117	 2	 0.0	 0.0	 0.0	 0.0	 5	    1.00000	    0.00000	 11.0	 1	    1.10000	    0.90000;
	2118	 2	 1.44	 0.00	 0.0	 0.0	 5	    1.00000	    0.00000	 13.8	 1	    1.10000	    0.90000;
	2119	 2	 0.0	 0.0	 0.0	 0.0	 5	    1.00000	    0.00000	 11.0	 1	    1.10000	    0.90000;
	2120	 1	 0.0	 0.0	 0.0	 0.0	 5	    1.00000	    0.00000	 11.5	 1	    1.10000	    0.90000;
	2121	 1	 0.0	 0.0	 0.0	 0.0	 5	    1.00000	    0.00000	 11.5	 1	    1.10000	    0.90000;
	2122	 1	 0.0	 0.0	 0.0	 0.0	 5	    1.00000	    0.00000	 11.5	 1	    1.10000	    0.90000;
	2123	 2	 0.0	 0.0	 0.0	 0.0	 5	    1.00000	    0.00000	 11.5	 1	    1.10000	    0.90000;
	2124	 2	 9.55	 1.85	 0.0	 0.0	 5	    1.00000	    0.00000	 14.5	 1	    1.10000	    0.90000;
	2125	 2	 0.0	 0.0	 0.0	 0.0	 5	    1.00000	    0.00000	 13.2	 1	    1.10000	    0.90000;
	2126	 2	 0.0	 0.0	 0.0	 0.0	 5	    1.00000	    0.00000	 11.0	 1	    1.10000	    0.90000;
	2127	 2	 0.0	 0.0	 0.0	 0.0	 5	    1.00000	    0.00000	 11.0	 1	    1.10000	    0.90000;
	2128	 2	 0.0	 0.0	 0.0	 0.0	 5	    1.00000	    0.00000	 11.0	 1	    1.10000	    0.90000;
	2129	 2	 0.0	 0.0	 0.0	 0.0	 5	    1.00000	    0.00000	 11.0	 1	    1.10000	    0.90000;
	2130	 2	 0.0	 0.0	 0.0	 0.0	 5	    1.00000	    0.00000	 11.0	 1	    1.10000	    0.90000;
	2131	 2	 0.0	 0.0	 0.0	 0.0	 5	    1.00000	    0.00000	 11.0	 1	    1.10000	    0.90000;
	2132	 2	 0.0	 0.0	 0.0	 0.0	 5	    1.00000	    0.00000	 11.0	 1	    1.10000	    0.90000;
	2133	 2	 0.0	 0.0	 0.0	 0.0	 5	    1.00000	    0.00000	 11.0	 1	    1.10000	    0.90000;
	2134	 2	 0.0	 0.0	 0.0	 0.0	 5	    1.00000	    0.00000	 18.0	 1	    1.10000	    0.90000;
	2135	 2	 0.0	 0.0	 0.0	 0.0	 5	    1.00000	    0.00000	 18.0	 1	    1.10000	    0.90000;
	2136	 3	 0.0	 0.0	 0.0	 0.0	 5	    1.00000	    0.00000	 18.0	 1	    1.10000	    0.90000;
	2137	 1	 0.0	 0.0	 0.0	 0.0	 5	    1.00000	    0.00000	 6.6	 1	    1.10000	    0.90000;
	2138	 2	 0.0	 0.0	 0.0	 0.0	 5	    1.00000	    0.00000	 11.0	 1	    1.10000	    0.90000;
	2139	 2	 0.0	 0.0	 0.0	 0.0	 5	    1.00000	    0.00000	 11.0	 1	    1.10000	    0.90000;
	2140	 2	 0.0	 0.0	 0.0	 0.0	 5	    1.00000	    0.00000	 16.0	 1	    1.10000	    0.90000;
	2141	 1	 0.0	 0.0	 0.0	 0.0	 5	    1.00000	    0.00000	 16.0	 1	    1.10000	    0.90000;
	2142	 2	 0.0	 0.0	 0.0	 0.0	 5	    1.00000	    0.00000	 16.0	 1	    1.10000	    0.90000;
	2143	 2	 0.0	 0.0	 0.0	 0.0	 5	    1.00000	    0.00000	 16.0	 1	    1.10000	    0.90000;
	2144	 2	 0.0	 0.0	 0.0	 0.0	 5	    1.00000	    0.00000	 16.0	 1	    1.10000	    0.90000;
	2145	 1	 0.0	 0.0	 0.0	 0.0	 5	    1.00000	    0.00000	 16.0	 1	    1.10000	    0.90000;
	2146	 1	 -7.49	 0.00	 0.0	 0.0	 5	    1.00000	    0.00000	 0.69	 1	    1.10000	    0.90000;
	2147	 1	 0.0	 0.0	 0.0	 0.0	 5	    1.00000	    0.00000	 22.0	 1	    1.10000	    0.90000;
	2148	 2	 0.0	 0.0	 0.0	 0.0	 5	    1.00000	    0.00000	 1.0	 1	    1.10000	    0.90000;
	2149	 1	 0.0	 0.0	 0.0	 -5.70733361581	 5	    1.00000	    0.00000	 13.8	 1	    1.10000	    0.90000;
	2150	 1	 0.0	 0.0	 0.0	 -6.03779546404	 5	    1.00000	    0.00000	 13.8	 1	    1.10000	    0.90000;
	2152	 1	 0.0	 0.0	 0.0	 0.0	 5	    1.00000	    0.00000	 110.0	 1	    1.10000	    0.90000;
	2153	 1	 0.0	 0.0	 0.0	 0.0	 5	    1.00000	    0.00000	 110.0	 1	    1.10000	    0.90000;
	2155	 1	 0.0	 0.0	 0.0	 0.0	 5	    1.00000	    0.00000	 110.0	 1	    1.10000	    0.90000;
	2156	 1	 0.0	 0.0	 0.0	 0.0	 5	    1.00000	    0.00000	 110.0	 1	    1.10000	    0.90000;
	2157	 1	 0.0	 0.0	 0.0	 0.0	 5	    1.00000	    0.00000	 110.0	 1	    1.10000	    0.90000;
	2158	 1	 0.0	 0.0	 0.0	 0.0	 5	    1.00000	    0.00000	 110.0	 1	    1.10000	    0.90000;
	2160	 1	 0.0	 0.0	 0.0	 0.0	 5	    1.00000	    0.00000	 110.0	 1	    1.10000	    0.90000;
	2161	 1	 0.0	 0.0	 0.0	 0.0	 5	    1.00000	    0.00000	 110.0	 1	    1.10000	    0.90000;
	2162	 1	 0.0	 0.0	 0.0	 0.0	 5	    1.00000	    0.00000	 110.0	 1	    1.10000	    0.90000;
	2163	 1	 0.0	 0.0	 0.0	 0.0	 5	    1.00000	    0.00000	 110.0	 1	    1.10000	    0.90000;
	2164	 1	 0.0	 0.0	 0.0	 30.2475361833	 5	    1.00000	    0.00000	 110.0	 1	    1.10000	    0.90000;
	2165	 1	 0.0	 0.0	 0.0	 0.0	 5	    1.00000	    0.00000	 110.0	 1	    1.10000	    0.90000;
	2166	 1	 0.0	 0.0	 0.0	 29.8942327662	 5	    1.00000	    0.00000	 110.0	 1	    1.10000	    0.90000;
	2167	 1	 0.0	 0.0	 0.0	 0.0	 5	    1.00000	    0.00000	 110.0	 1	    1.10000	    0.90000;
	2168	 1	 0.0	 0.0	 0.0	 0.0	 5	    1.00000	    0.00000	 110.0	 1	    1.10000	    0.90000;
	2169	 1	 0.0	 0.0	 0.0	 0.0	 5	    1.00000	    0.00000	 110.0	 1	    1.10000	    0.90000;
	2170	 1	 0.0	 0.0	 0.0	 0.0	 5	    1.00000	    0.00000	 110.0	 1	    1.10000	    0.90000;
	2171	 1	 0.0	 0.0	 0.0	 0.0	 5	    1.00000	    0.00000	 110.0	 1	    1.10000	    0.90000;
	2172	 1	 0.0	 0.0	 0.0	 0.0	 5	    1.00000	    0.00000	 110.0	 1	    1.10000	    0.90000;
	2173	 1	 0.0	 0.0	 0.0	 27.5769489619	 5	    1.00000	    0.00000	 110.0	 1	    1.10000	    0.90000;
	2174	 1	 0.0	 0.0	 0.0	 0.0	 5	    1.00000	    0.00000	 110.0	 1	    1.10000	    0.90000;
	2175	 1	 195.98	 5.56	 0.0	 0.0	 5	    1.00000	    0.00000	 110.0	 1	    1.10000	    0.90000;
	2176	 1	 0.0	 0.0	 0.0	 0.0	 5	    1.00000	    0.00000	 110.0	 1	    1.10000	    0.90000;
	2177	 1	 0.0	 0.0	 0.0	 0.0	 5	    1.00000	    0.00000	 110.0	 1	    1.10000	    0.90000;
	2178	 1	 0.0	 0.0	 0.0	 0.0	 5	    1.00000	    0.00000	 110.0	 1	    1.10000	    0.90000;
	2180	 1	 0.0	 0.0	 0.0	 0.0	 5	    1.00000	    0.00000	 110.0	 1	    1.10000	    0.90000;
	2183	 1	 0.0	 0.0	 0.0	 0.0	 5	    1.00000	    0.00000	 110.0	 1	    1.10000	    0.90000;
	2186	 1	 0.0	 0.0	 0.0	 0.0	 5	    1.00000	    0.00000	 110.0	 1	    1.10000	    0.90000;
	2189	 1	 0.0	 0.0	 0.0	 0.0	 5	    1.00000	    0.00000	 110.0	 1	    1.10000	    0.90000;
	2190	 1	 0.0	 0.0	 0.0	 0.0	 5	    1.00000	    0.00000	 110.0	 1	    1.10000	    0.90000;
	2192	 1	 0.0	 0.0	 0.0	 0.0	 5	    1.00000	    0.00000	 110.0	 1	    1.10000	    0.90000;
	2193	 1	 0.0	 0.0	 0.0	 0.0	 5	    1.00000	    0.00000	 110.0	 1	    1.10000	    0.90000;
	2194	 1	 0.0	 0.0	 0.0	 0.0	 5	    1.00000	    0.00000	 110.0	 1	    1.10000	    0.90000;
	2195	 1	 0.0	 0.0	 0.0	 39.4429057464	 5	    1.00000	    0.00000	 110.0	 1	    1.10000	    0.90000;
	2198	 1	 0.0	 0.0	 0.0	 0.0	 5	    1.00000	    0.00000	 110.0	 1	    1.10000	    0.90000;
	2199	 1	 7.42	 1.23	 0.0	 0.0	 5	    1.00000	    0.00000	 33.0	 1	    1.10000	    0.90000;
	2200	 1	 0.0	 0.0	 0.0	 0.0	 5	    1.00000	    0.00000	 110.0	 1	    1.10000	    0.90000;
	2201	 1	 0.0	 0.0	 0.0	 0.0	 5	    1.00000	    0.00000	 110.0	 1	    1.10000	    0.90000;
	2202	 1	 0.0	 0.0	 0.0	 0.0	 5	    1.00000	    0.00000	 110.0	 1	    1.10000	    0.90000;
	2203	 1	 0.0	 0.0	 0.0	 0.0	 5	    1.00000	    0.00000	 110.0	 1	    1.10000	    0.90000;
	2204	 1	 0.0	 0.0	 0.0	 0.0	 5	    1.00000	    0.00000	 110.0	 1	    1.10000	    0.90000;
	2205	 1	 0.0	 0.0	 0.0	 0.0	 5	    1.00000	    0.00000	 110.0	 1	    1.10000	    0.90000;
	2206	 1	 0.0	 0.0	 0.0	 0.0	 5	    1.00000	    0.00000	 110.0	 1	    1.10000	    0.90000;
	2207	 1	 0.0	 0.0	 0.0	 0.0	 5	    1.00000	    0.00000	 110.0	 1	    1.10000	    0.90000;
	2208	 1	 0.0	 0.0	 0.0	 0.0	 5	    1.00000	    0.00000	 110.0	 1	    1.10000	    0.90000;
	2209	 1	 0.0	 0.0	 0.0	 0.0	 5	    1.00000	    0.00000	 110.0	 1	    1.10000	    0.90000;
	2210	 1	 0.0	 0.0	 0.0	 0.0	 5	    1.00000	    0.00000	 110.0	 1	    1.10000	    0.90000;
	2212	 1	 0.0	 0.0	 0.0	 0.0	 5	    1.00000	    0.00000	 110.0	 1	    1.10000	    0.90000;
	2214	 1	 0.0	 0.0	 0.0	 0.0	 5	    1.00000	    0.00000	 110.0	 1	    1.10000	    0.90000;
	2215	 1	 0.0	 0.0	 0.0	 0.0	 5	    1.00000	    0.00000	 110.0	 1	    1.10000	    0.90000;
	2217	 1	 0.0	 0.0	 0.0	 0.0	 5	    1.00000	    0.00000	 110.0	 1	    1.10000	    0.90000;
	2219	 1	 0.0	 0.0	 0.0	 0.0	 5	    1.00000	    0.00000	 110.0	 1	    1.10000	    0.90000;
	2220	 1	 0.0	 0.0	 0.0	 0.0	 5	    1.00000	    0.00000	 110.0	 1	    1.10000	    0.90000;
	2221	 1	 45.67	 4.24	 0.0	 0.0	 5	    1.00000	    0.00000	 22.0	 1	    1.10000	    0.90000;
	2222	 1	 0.0	 0.0	 0.0	 0.0	 5	    1.00000	    0.00000	 110.0	 1	    1.10000	    0.90000;
	2223	 1	 0.0	 0.0	 0.0	 0.0	 5	    1.00000	    0.00000	 110.0	 1	    1.10000	    0.90000;
	2224	 1	 0.0	 0.0	 0.0	 0.0	 5	    1.00000	    0.00000	 110.0	 1	    1.10000	    0.90000;
	2225	 1	 0.0	 0.0	 0.0	 0.0	 5	    1.00000	    0.00000	 110.0	 1	    1.10000	    0.90000;
	2226	 1	 1.51	 0.81	 0.0	 0.0	 5	    1.00000	    0.00000	 110.0	 1	    1.10000	    0.90000;
	2227	 1	 0.0	 0.0	 0.0	 0.0	 5	    1.00000	    0.00000	 110.0	 1	    1.10000	    0.90000;
	2228	 1	 1.25	 -0.66	 0.0	 0.0	 5	    1.00000	    0.00000	 110.0	 1	    1.10000	    0.90000;
	2229	 1	 0.0	 0.0	 0.0	 0.0	 5	    1.00000	    0.00000	 110.0	 1	    1.10000	    0.90000;
	2231	 1	 0.0	 0.0	 0.0	 0.0	 5	    1.00000	    0.00000	 110.0	 1	    1.10000	    0.90000;
	2232	 1	 0.0	 0.0	 0.0	 0.0	 5	    1.00000	    0.00000	 110.0	 1	    1.10000	    0.90000;
	2233	 1	 0.0	 0.0	 0.0	 0.0	 5	    1.00000	    0.00000	 110.0	 1	    1.10000	    0.90000;
	2234	 1	 11.29	 0.35	 0.0	 0.0	 5	    1.00000	    0.00000	 33.0	 1	    1.10000	    0.90000;
	2235	 1	 11.44	 0.32	 0.0	 0.0	 5	    1.00000	    0.00000	 33.0	 1	    1.10000	    0.90000;
	2237	 1	 0.0	 0.0	 0.0	 0.0	 5	    1.00000	    0.00000	 110.0	 1	    1.10000	    0.90000;
	2238	 1	 0.0	 0.0	 0.0	 0.0	 5	    1.00000	    0.00000	 110.0	 1	    1.10000	    0.90000;
	2239	 1	 0.0	 0.0	 0.0	 0.0	 5	    1.00000	    0.00000	 220.0	 1	    1.10000	    0.90000;
	2240	 1	 0.0	 0.0	 0.0	 0.0	 5	    1.00000	    0.00000	 220.0	 1	    1.10000	    0.90000;
	2241	 1	 0.0	 0.0	 0.0	 0.0	 5	    1.00000	    0.00000	 220.0	 1	    1.10000	    0.90000;
	2242	 1	 0.0	 0.0	 0.0	 0.0	 5	    1.00000	    0.00000	 220.0	 1	    1.10000	    0.90000;
	2243	 1	 0.0	 0.0	 0.0	 0.0	 5	    1.00000	    0.00000	 220.0	 1	    1.10000	    0.90000;
	2244	 1	 0.0	 0.0	 0.0	 0.0	 5	    1.00000	    0.00000	 220.0	 1	    1.10000	    0.90000;
	2247	 1	 0.0	 0.0	 0.0	 0.0	 5	    1.00000	    0.00000	 220.0	 1	    1.10000	    0.90000;
	2249	 1	 0.0	 0.0	 0.0	 0.0	 5	    1.00000	    0.00000	 220.0	 1	    1.10000	    0.90000;
	2250	 2	 1362.69	 94.40	 0.0	 269.606850442	 5	    1.00000	    0.00000	 220.0	 1	    1.10000	    0.90000;
	2255	 1	 0.0	 0.0	 0.0	 0.0	 5	    1.00000	    0.00000	 220.0	 1	    1.10000	    0.90000;
	2259	 1	 0.0	 0.0	 0.0	 0.0	 5	    1.00000	    0.00000	 220.0	 1	    1.10000	    0.90000;
	2261	 1	 0.0	 0.0	 0.0	 0.0	 5	    1.00000	    0.00000	 220.0	 1	    1.10000	    0.90000;
	2262	 1	 0.0	 0.0	 0.0	 0.0	 5	    1.00000	    0.00000	 220.0	 1	    1.10000	    0.90000;
	2263	 1	 0.0	 0.0	 0.0	 0.0	 5	    1.00000	    0.00000	 220.0	 1	    1.10000	    0.90000;
	2268	 1	 0.0	 0.0	 0.0	 0.0	 5	    1.00000	    0.00000	 220.0	 1	    1.10000	    0.90000;
	2269	 1	 0.0	 0.0	 0.0	 0.0	 5	    1.00000	    0.00000	 220.0	 1	    1.10000	    0.90000;
	2270	 1	 0.0	 0.0	 0.0	 0.0	 5	    1.00000	    0.00000	 220.0	 1	    1.10000	    0.90000;
	2272	 1	 0.10	 -0.13	 0.0	 0.0	 5	    1.00000	    0.00000	 11.0	 1	    1.10000	    0.90000;
	2273	 1	 35.70	 4.79	 0.0	 0.0	 5	    1.00000	    0.00000	 22.0	 1	    1.10000	    0.90000;
	2274	 1	 25.23	 9.05	 0.0	 0.0	 5	    1.00000	    0.00000	 6.6	 1	    1.10000	    0.90000;
	2275	 1	 20.01	 5.37	 0.0	 0.0	 5	    1.00000	    0.00000	 6.6	 1	    1.10000	    0.90000;
	2276	 1	 2.21	 0.52	 0.0	 0.0	 5	    1.00000	    0.00000	 6.6	 1	    1.10000	    0.90000;
	2277	 1	 68.45	 12.08	 0.0	 0.0	 5	    1.00000	    0.00000	 33.0	 1	    1.10000	    0.90000;
	2278	 1	 27.45	 0.18	 0.0	 0.0	 5	    1.00000	    0.00000	 33.0	 1	    1.10000	    0.90000;
	2279	 1	 50.30	 17.09	 0.0	 0.0	 5	    1.00000	    0.00000	 44.0	 1	    1.10000	    0.90000;
	2280	 1	 2.29	 -0.22	 0.0	 0.0	 5	    1.00000	    0.00000	 22.0	 1	    1.10000	    0.90000;
	2281	 1	 -5.28	 1.57	 0.0	 0.0	 5	    1.00000	    0.00000	 11.0	 1	    1.10000	    0.90000;
	2282	 1	 1.07	 0.16	 0.0	 0.0	 5	    1.00000	    0.00000	 22.0	 1	    1.10000	    0.90000;
	2283	 1	 5.13	 0.92	 0.0	 0.0	 5	    1.00000	    0.00000	 22.0	 1	    1.10000	    0.90000;
	2284	 1	 0.10	 -0.08	 0.0	 0.0	 5	    1.00000	    0.00000	 11.0	 1	    1.10000	    0.90000;
	2285	 1	 26.64	 5.50	 0.0	 0.0	 5	    1.00000	    0.00000	 22.0	 1	    1.10000	    0.90000;
	2286	 1	 22.89	 4.23	 0.0	 0.0	 5	    1.00000	    0.00000	 22.0	 1	    1.10000	    0.90000;
	2287	 1	 58.70	 4.94	 0.0	 0.0	 5	    1.00000	    0.00000	 22.0	 1	    1.10000	    0.90000;
	2288	 1	 8.89	 2.31	 0.0	 0.0	 5	    1.00000	    0.00000	 11.0	 1	    1.10000	    0.90000;
	2289	 1	 21.27	 2.24	 0.0	 0.0	 5	    1.00000	    0.00000	 22.0	 1	    1.10000	    0.90000;
	2290	 1	 63.24	 11.44	 0.0	 0.0	 5	    1.00000	    0.00000	 22.0	 1	    1.10000	    0.90000;
	2291	 1	 66.27	 13.56	 0.0	 0.0	 5	    1.00000	    0.00000	 22.0	 1	    1.10000	    0.90000;
	2292	 1	 16.56	 1.29	 0.0	 0.0	 5	    1.00000	    0.00000	 22.0	 1	    1.10000	    0.90000;
	2293	 1	 12.20	 1.67	 0.0	 0.0	 5	    1.00000	    0.00000	 22.0	 1	    1.10000	    0.90000;
	2294	 1	 0.0	 0.0	 0.0	 0.0	 5	    1.00000	    0.00000	 22.0	 1	    1.10000	    0.90000;
	2295	 1	 1.13	 -0.13	 0.0	 0.0	 5	    1.00000	    0.00000	 22.0	 1	    1.10000	    0.90000;
	2296	 1	 7.01	 1.13	 0.0	 0.0	 5	    1.00000	    0.00000	 22.0	 1	    1.10000	    0.90000;
	2297	 1	 0.10	 -0.16	 0.0	 0.0	 5	    1.00000	    0.00000	 22.0	 1	    1.10000	    0.90000;
	2298	 1	 12.53	 0.63	 0.0	 0.0	 5	    1.00000	    0.00000	 11.0	 1	    1.10000	    0.90000;
	2299	 1	 4.77	 -0.36	 0.0	 0.0	 5	    1.00000	    0.00000	 11.0	 1	    1.10000	    0.90000;
	2300	 1	 12.19	 1.53	 0.0	 0.0	 5	    1.00000	    0.00000	 11.0	 1	    1.10000	    0.90000;
	2301	 1	 11.37	 1.10	 0.0	 0.0	 5	    1.00000	    0.00000	 11.0	 1	    1.10000	    0.90000;
	2302	 1	 18.88	 3.51	 0.0	 0.0	 5	    1.00000	    0.00000	 11.0	 1	    1.10000	    0.90000;
	2303	 1	 14.23	 1.73	 0.0	 0.0	 5	    1.00000	    0.00000	 11.0	 1	    1.10000	    0.90000;
	2304	 1	 2.91	 -0.20	 0.0	 0.0	 5	    1.00000	    0.00000	 11.0	 1	    1.10000	    0.90000;
	2305	 1	 3.20	 -0.03	 0.0	 0.0	 5	    1.00000	    0.00000	 11.0	 1	    1.10000	    0.90000;
	2306	 1	 2.20	 0.15	 0.0	 0.0	 5	    1.00000	    0.00000	 22.0	 1	    1.10000	    0.90000;
	2307	 1	 2.18	 0.14	 0.0	 0.0	 5	    1.00000	    0.00000	 22.0	 1	    1.10000	    0.90000;
	2308	 1	 2.70	 -0.52	 0.0	 0.0	 5	    1.00000	    0.00000	 11.0	 1	    1.10000	    0.90000;
	2309	 1	 6.55	 0.27	 0.0	 0.0	 5	    1.00000	    0.00000	 11.0	 1	    1.10000	    0.90000;
	2310	 1	 7.85	 1.24	 0.0	 0.0	 5	    1.00000	    0.00000	 11.0	 1	    1.10000	    0.90000;
	2311	 1	 20.24	 3.44	 0.0	 0.0	 5	    1.00000	    0.00000	 11.0	 1	    1.10000	    0.90000;
	2312	 1	 6.15	 1.21	 0.0	 0.0	 5	    1.00000	    0.00000	 11.0	 1	    1.10000	    0.90000;
	2313	 1	 22.81	 0.93	 0.0	 0.0	 5	    1.00000	    0.00000	 22.0	 1	    1.10000	    0.90000;
	2314	 1	 19.10	 2.72	 0.0	 0.0	 5	    1.00000	    0.00000	 22.0	 1	    1.10000	    0.90000;
	2315	 1	 52.92	 5.39	 0.0	 0.0	 5	    1.00000	    0.00000	 22.0	 1	    1.10000	    0.90000;
	2316	 1	 10.72	 2.31	 0.0	 0.0	 5	    1.00000	    0.00000	 22.0	 1	    1.10000	    0.90000;
	2317	 1	 16.22	 2.29	 0.0	 0.0	 5	    1.00000	    0.00000	 22.0	 1	    1.10000	    0.90000;
	2318	 1	 10.37	 -0.05	 0.0	 0.0	 5	    1.00000	    0.00000	 22.0	 1	    1.10000	    0.90000;
	2319	 1	 0.0	 0.0	 0.0	 0.0	 5	    1.00000	    0.00000	 22.0	 1	    1.10000	    0.90000;
	2320	 1	 28.87	 3.40	 0.0	 0.0	 5	    1.00000	    0.00000	 22.0	 1	    1.10000	    0.90000;
	2321	 1	 5.51	 -0.30	 0.0	 0.0	 5	    1.00000	    0.00000	 22.0	 1	    1.10000	    0.90000;
	2322	 1	 0.48	 0.32	 0.0	 0.0	 5	    1.00000	    0.00000	 11.0	 1	    1.10000	    0.90000;
	2323	 1	 0.0	 0.0	 0.0	 0.0	 5	    1.00000	    0.00000	 110.0	 1	    1.10000	    0.90000;
	2324	 1	 0.0	 0.0	 0.0	 0.0	 5	    1.00000	    0.00000	 1.0	 1	    1.10000	    0.90000;
	2325	 1	 0.0	 0.0	 0.0	 0.0	 5	    1.00000	    0.00000	 1.0	 1	    1.10000	    0.90000;
	2326	 1	 0.0	 0.0	 0.0	 0.0	 5	    1.00000	    0.00000	 1.0	 1	    1.10000	    0.90000;
	2328	 1	 0.0	 0.0	 0.0	 0.0	 5	    1.00000	    0.00000	 22.0	 1	    1.10000	    0.90000;
	2329	 2	 0.0	 0.0	 0.0	 0.0	 5	    1.00000	    0.00000	 11.0	 1	    1.10000	    0.90000;
	2330	 2	 0.0	 0.0	 0.0	 0.0	 5	    1.00000	    0.00000	 11.0	 1	    1.10000	    0.90000;
	2331	 2	 0.0	 0.0	 0.0	 0.0	 5	    1.00000	    0.00000	 11.0	 1	    1.10000	    0.90000;
	2332	 2	 0.0	 0.0	 0.0	 0.0	 5	    1.00000	    0.00000	 11.0	 1	    1.10000	    0.90000;
	2333	 2	 0.0	 0.0	 0.0	 0.0	 5	    1.00000	    0.00000	 11.0	 1	    1.10000	    0.90000;
	2334	 2	 0.0	 0.0	 0.0	 0.0	 5	    1.00000	    0.00000	 11.0	 1	    1.10000	    0.90000;
	2335	 2	 0.0	 0.0	 0.0	 0.0	 5	    1.00000	    0.00000	 11.0	 1	    1.10000	    0.90000;
	2336	 1	 58.50	 10.65	 0.0	 0.0	 5	    1.00000	    0.00000	 33.0	 1	    1.10000	    0.90000;
	2337	 1	 88.60	 16.25	 0.0	 0.0	 5	    1.00000	    0.00000	 11.0	 1	    1.10000	    0.90000;
	2338	 1	 3.06	 2.65	 0.0	 0.0	 5	    1.00000	    0.00000	 22.0	 1	    1.10000	    0.90000;
	2339	 1	 15.72	 -4.32	 0.0	 0.0	 5	    1.00000	    0.00000	 6.6	 1	    1.10000	    0.90000;
	10108	 1	 0.0	 0.0	 0.0	 0.0	 5	    1.00000	    0.00000	 110.0	 1	    1.10000	    0.90000;
	10109	 1	 0.0	 0.0	 0.0	 0.0	 5	    1.00000	    0.00000	 110.0	 1	    1.10000	    0.90000;
	10110	 1	 0.0	 0.0	 0.0	 0.0	 5	    1.00000	    0.00000	 110.0	 1	    1.10000	    0.90000;
	10111	 1	 0.0	 0.0	 0.0	 0.0	 5	    1.00000	    0.00000	 110.0	 1	    1.10000	    0.90000;
	10112	 1	 0.0	 0.0	 0.0	 0.0	 5	    1.00000	    0.00000	 110.0	 1	    1.10000	    0.90000;
	10113	 1	 0.0	 0.0	 0.0	 0.0	 5	    1.00000	    0.00000	 110.0	 1	    1.10000	    0.90000;
];

%% generator data
%	bus	Pg	Qg	Qmax	Qmin	Vg	mBase	status	Pmax	Pmin
mpc.gen = [
	2114	 46.0	 10.0	 110.0	 -90.0	 1.0	 147.696965935	 1	 92	 0.0; % NG
	2115	 109.5	 5.0	 120.0	 -110.0	 1.0	 147.170128863	 1	 219	 0.0; % COW
	2116	 72.0	 0.0	 72.0	 -72.0	 1.0	 99.8268229078	 1	 144	 0.0; % NG
	2117	 97.0	 0.0	 97.0	 -97.0	 1.0	 59.56099006	 1	 194	 0.0; % PEL
	2118	 134.5	 0.0	 135.0	 -135.0	 1.0	 123.244468958	 1	 269	 0.0; % NG
	2119	 87.0	 0.0	 87.0	 -87.0	 1.0	 37.8683050583	 1	 174	 0.0; % COW
	2123	 40.0	 0.0	 72.0	 -72.0	 1.0	 72.6031327684	 1	 80	 0.0; % NG
	2124	 172.5	 0.0	 173.0	 -173.0	 1.0	 192.647608941	 1	 345	 0.0; % NG
	2125	 113.5	 0.0	 114.0	 -114.0	 1.0	 96.002555525	 1	 227	 0.0; % NG
	2126	 12.5	 3.5	 20.0	 -13.0	 1.0	 16.4278021573	 1	 25	 0.0; % NG
	2127	 27.0	 0.0	 27.0	 -27.0	 1.0	 40.33056631	 1	 54	 0.0; % NG
	2128	 38.5	 0.0	 39.0	 -39.0	 1.0	 40.0795192	 1	 77	 0.0; % NG
	2129	 27.0	 0.0	 27.0	 -27.0	 1.0	 33.6463986922	 1	 54	 0.0; % PEL
	2130	 41.0	 0.0	 41.0	 -41.0	 1.0	 33.3273031253	 1	 82	 0.0; % NG
	2131	 25.0	 0.0	 25.0	 -25.0	 1.0	 34.2333408685	 1	 50	 0.0; % NG
	2132	 22.5	 3.5	 30.0	 -23.0	 1.0	 37.7499579499	 1	 45	 0.0; % PEL
	2133	 35.0	 2.5	 40.0	 -35.0	 1.0	 53.9771218854	 1	 70	 0.0; % COW
	2134	 58.5	 5.5	 70.0	 -59.0	 1.0	 169.17400955	 1	 117	 0.0; % NG
	2135	 68.5	 5.0	 80.0	 -70.0	 1.0	 175.344738018	 1	 137	 0.0; % COW
	2136	 38.5	 10.0	 80.0	 -60.0	 1.0	 168.121105693	 1	 77	 0.0; % NG
	2138	 30.0	 1.4	 40.0	 -37.2	 1.0	 33.7659113865	 1	 60	 0.0; % NG
	2139	 57.0	 0.0	 57.0	 -57.0	 1.0	 36.76534479	 1	 114	 0.0; % NG
	2140	 25.0	 10.0	 70.0	 -50.0	 1.0	 67.9893259308	 1	 50	 0.0; % NG
	2142	 59.0	 5.5	 70.0	 -59.0	 1.0	 68.3699770729	 1	 118	 0.0; % PEL
	2143	 33.0	 15.0	 70.0	 -40.0	 1.0	 66.635863774	 1	 66	 0.0; % PEL
	2144	 68.0	 1.0	 70.0	 -68.0	 1.0	 67.2894188494	 1	 136	 0.0; % PEL
	2148	 97.5	 0.0	 98.0	 -98.0	 1.0	 83.725310623	 1	 195	 0.0; % NG
	2329	 28.5	 0.5	 30.0	 -29.0	 1.0	 65.7624427797	 1	 57	 0.0; % NG
	2330	 16.5	 1.5	 20.0	 -17.0	 1.0	 36.1447293924	 1	 33	 0.0; % NG
	2331	 17.0	 0.0	 20.0	 -20.0	 1.0	 32.9465583476	 1	 34	 0.0; % NG
	2332	 20.5	 0.0	 21.0	 -21.0	 1.0	 34.0468555721	 1	 41	 0.0; % COW
	2333	 84.0	 0.0	 84.0	 -84.0	 1.0	 16.3866927561	 1	 168	 0.0; % COW
	2334	 23.0	 0.0	 23.0	 -23.0	 1.0	 32.5552539895	 1	 46	 0.0; % COW
	2335	 55.0	 0.0	 55.0	 -55.0	 1.0	 31.9203887789	 1	 110	 0.0; % NG
	2250	 705.0	 0.0	 705.0	 -705.0	 1.0	 5.43358585262	 1	 1410	 0.0; % NG
];

%% generator cost data
%	2	startup	shutdown	n	c(n-1)	...	c0
mpc.gencost = [
	2	 0.0	 0.0	 3	   0.000000	   0.001000	   0.000000; % NG
	2	 0.0	 0.0	 3	   0.000000	   0.001000	   0.000000; % COW
	2	 0.0	 0.0	 3	   0.000000	   0.001000	   0.000000; % NG
	2	 0.0	 0.0	 3	   0.000000	   0.001000	   0.000000; % PEL
	2	 0.0	 0.0	 3	   0.000000	   0.001000	   0.000000; % NG
	2	 0.0	 0.0	 3	   0.000000	   0.001000	   0.000000; % COW
	2	 0.0	 0.0	 3	   0.000000	   0.001000	   0.000000; % NG
	2	 100.0	 0.0	 3	   0.000000	  12.021005	   0.000000; % NG
	2	 0.0	 0.0	 3	   0.000000	   0.001000	   0.000000; % NG
	2	 0.0	 0.0	 3	   0.000000	   0.001000	   0.000000; % NG
	2	 0.0	 0.0	 3	   0.000000	   0.001000	   0.000000; % NG
	2	 0.0	 0.0	 3	   0.000000	   0.001000	   0.000000; % NG
	2	 0.0	 0.0	 3	   0.000000	   0.001000	   0.000000; % PEL
	2	 0.0	 0.0	 3	   0.000000	   0.001000	   0.000000; % NG
	2	 0.0	 0.0	 3	   0.000000	   0.001000	   0.000000; % NG
	2	 0.0	 0.0	 3	   0.000000	   0.001000	   0.000000; % PEL
	2	 0.0	 0.0	 3	   0.000000	   0.001000	   0.000000; % COW
	2	 0.0	 0.0	 3	   0.000000	   0.001000	   0.000000; % NG
	2	 0.0	 0.0	 3	   0.000000	   0.001000	   0.000000; % COW
	2	 0.0	 0.0	 3	   0.000000	   0.001000	   0.000000; % NG
	2	 0.0	 0.0	 3	   0.000000	   0.001000	   0.000000; % NG
	2	 100.0	 0.0	 3	   0.000000	  12.021005	   0.000000; % NG
	2	 0.0	 0.0	 3	   0.000000	   0.001000	   0.000000; % NG
	2	 0.0	 0.0	 3	   0.000000	   0.001000	   0.000000; % PEL
	2	 0.0	 0.0	 3	   0.000000	   0.001000	   0.000000; % PEL
	2	 0.0	 0.0	 3	   0.000000	   0.001000	   0.000000; % PEL
	2	 0.0	 0.0	 3	   0.000000	   0.001000	   0.000000; % NG
	2	 0.0	 0.0	 3	   0.000000	   0.001000	   0.000000; % NG
	2	 0.0	 0.0	 3	   0.000000	   0.001000	   0.000000; % NG
	2	 100.0	 0.0	 3	   0.000000	  12.021005	   0.000000; % NG
	2	 0.0	 0.0	 3	   0.000000	   0.001000	   0.000000; % COW
	2	 0.0	 0.0	 3	   0.000000	   0.001000	   0.000000; % COW
	2	 0.0	 0.0	 3	   0.000000	   0.001000	   0.000000; % COW
	2	 0.0	 0.0	 3	   0.000000	   0.001000	   0.000000; % NG
	2	 100.0	 0.0	 3	   0.000000	   9.921005	   0.000000; % NG
];

%% branch data
%	fbus	tbus	r	x	b	rateA	rateB	rateC	ratio	angle	status	angmin	angmax
mpc.branch = [
	2152	 2156	 0.00834450528496	 0.0371057756822	 0.00388866725242	 160.0	 160.0	 160.0	 0.0	 0.0	 1	 -30.0	 30.0;
	2153	 2156	 0.006612602031	 0.017109146624	 0.00165633454293	 115.0	 115.0	 115.0	 0.0	 0.0	 1	 -30.0	 30.0;
	2153	 2156	 0.00550651928481	 0.0149698399927	 0.00172714817226	 119.0	 119.0	 119.0	 0.0	 0.0	 1	 -30.0	 30.0;
	2155	 2153	 0.01393972708	 0.102926742936	 0.0123074726317	 218.0	 218.0	 218.0	 0.0	 0.0	 1	 -30.0	 30.0;
	2156	 2157	 0.02545334659	 0.0721554038461	 0.00680053036105	 122.0	 122.0	 122.0	 0.0	 0.0	 1	 -30.0	 30.0;
	2157	 2172	 0.0299991099129	 0.0854487027202	 0.00844874817832	 122.0	 122.0	 122.0	 0.0	 0.0	 1	 -30.0	 30.0;
	2158	 2153	 0.0446317172529	 0.0702443516722	 0.00557138734468	 85.0	 85.0	 85.0	 0.0	 0.0	 1	 -30.0	 30.0;
	2160	 2166	 0.00221781807094	 0.0150542312874	 0.00163558931096	 207.0	 207.0	 207.0	 0.0	 0.0	 1	 -30.0	 30.0;
	2161	 2166	 0.00979486179023	 0.0249472030214	 0.00296859624928	 114.0	 114.0	 114.0	 0.0	 0.0	 1	 -30.0	 30.0;
	2161	 2167	 0.022569879982	 0.0598841777916	 0.00660973093147	 117.0	 117.0	 117.0	 0.0	 0.0	 1	 -30.0	 30.0;
	2162	 2163	 0.0368750920058	 0.0712716392955	 0.0162320841232	 97.0	 97.0	 97.0	 0.0	 0.0	 1	 -30.0	 30.0;
	2162	 2164	 0.133172727607	 0.24271488602	 0.0159793607747	 93.0	 93.0	 93.0	 0.0	 0.0	 1	 -30.0	 30.0;
	2162	 2229	 0.0125014987677	 0.0906216808787	 0.0340298995427	 215.0	 215.0	 215.0	 0.0	 0.0	 1	 -30.0	 30.0;
	2163	 2164	 0.100609148637	 0.176248238354	 0.0157835522057	 91.0	 91.0	 91.0	 0.0	 0.0	 1	 -30.0	 30.0;
	2164	 2165	 0.00386886836307	 0.0103769073008	 0.00115304896291	 118.0	 118.0	 118.0	 0.0	 0.0	 1	 -30.0	 30.0;
	2164	 2166	 0.0548456849238	 0.146051026867	 0.0158653891447	 117.0	 117.0	 117.0	 0.0	 0.0	 1	 -30.0	 30.0;
	2164	 2226	 0.0322012007642	 0.0849837029603	 0.0090492049762	 117.0	 117.0	 117.0	 0.0	 0.0	 1	 -30.0	 30.0;
	2165	 2167	 0.0326571041771	 0.0841055311883	 0.00955746842655	 115.0	 115.0	 115.0	 0.0	 0.0	 1	 -30.0	 30.0;
	2166	 2168	 0.00948450876777	 0.050407684576	 0.00622709612376	 178.0	 178.0	 178.0	 0.0	 0.0	 1	 -30.0	 30.0;
	2166	 2169	 0.0213521373288	 0.0831676316532	 0.00938905109974	 148.0	 148.0	 148.0	 0.0	 0.0	 1	 -30.0	 30.0;
	2166	 2170	 0.00648433744151	 0.0344385667948	 0.00404136947009	 178.0	 178.0	 178.0	 0.0	 0.0	 1	 -30.0	 30.0;
	2166	 2170	 0.00693898262637	 0.0326422499585	 0.00425079271419	 166.0	 166.0	 166.0	 0.0	 0.0	 1	 -30.0	 30.0;
	2168	 2169	 0.0123307894492	 0.032810616942	 0.00347130369578	 117.0	 117.0	 117.0	 0.0	 0.0	 1	 -30.0	 30.0;
	2171	 2172	 0.0301156643856	 0.0796046618723	 0.00849322719584	 117.0	 117.0	 117.0	 0.0	 0.0	 1	 -30.0	 30.0;
	2172	 2227	 0.0438537854483	 0.117773755721	 0.0107526255948	 118.0	 118.0	 118.0	 0.0	 0.0	 1	 -30.0	 30.0;
	2173	 2175	 0.003635470736	 0.00979922927223	 0.00132046023133	 118.0	 118.0	 118.0	 0.0	 0.0	 1	 -30.0	 30.0;
	2173	 2228	 0.00817779703513	 0.0166973252526	 0.0016922451392	 100.0	 100.0	 100.0	 0.0	 0.0	 1	 -30.0	 30.0;
	2174	 2175	 0.0034524341182	 0.00941777568866	 0.00106530630905	 119.0	 119.0	 119.0	 0.0	 0.0	 1	 -30.0	 30.0;
	2176	 2177	 0.00544398463072	 0.018950843333	 0.00130446062224	 138.0	 138.0	 138.0	 0.0	 0.0	 1	 -30.0	 30.0;
	2176	 2178	 0.016235662227	 0.0728054892606	 0.0019680678417	 161.0	 161.0	 161.0	 0.0	 0.0	 1	 -30.0	 30.0;
	2176	 2224	 0.0394408773044	 0.137952632759	 0.00414441901073	 138.0	 138.0	 138.0	 0.0	 0.0	 1	 -30.0	 30.0;
	2177	 2224	 0.0473672257593	 0.159966352393	 0.00395088193268	 135.0	 135.0	 135.0	 0.0	 0.0	 1	 -30.0	 30.0;
	2178	 2238	 0.0341895124321	 0.134301567013	 0.0182315273713	 148.0	 148.0	 148.0	 0.0	 0.0	 1	 -30.0	 30.0;
	2180	 2126	 0.0507059526851	 0.686745299128	 0.00135414011457	 46.0	 46.0	 46.0	 1.0	 0.0	 1	 -30.0	 30.0;
	2180	 2189	 0.0392573585555	 0.058002956482	 0.00494046371803	 82.0	 82.0	 82.0	 0.0	 0.0	 1	 -30.0	 30.0;
	2180	 2323	 0.0300776910052	 0.0518558105006	 0.00394640633369	 90.0	 90.0	 90.0	 0.0	 0.0	 1	 -30.0	 30.0;
	2183	 2217	 0.0220924302279	 0.0648336640048	 0.0060613908166	 124.0	 124.0	 124.0	 0.0	 0.0	 1	 -30.0	 30.0;
	2183	 2323	 0.0189442508494	 0.057645648069	 0.00509880770957	 127.0	 127.0	 127.0	 0.0	 0.0	 1	 -30.0	 30.0;
	2217	 2323	 0.0418895350015	 0.11629788021	 0.0109106452358	 120.0	 120.0	 120.0	 0.0	 0.0	 1	 -30.0	 30.0;
	2186	 2190	 0.0219553756497	 0.0790700124031	 0.00969959060365	 141.0	 141.0	 141.0	 0.0	 0.0	 1	 -30.0	 30.0;
	2186	 2323	 0.0932669534612	 0.18336831322	 0.0159926383185	 98.0	 98.0	 98.0	 0.0	 0.0	 1	 -30.0	 30.0;
	2186	 2190	 0.0219083921358	 0.0856977156766	 0.00959333997972	 148.0	 148.0	 148.0	 0.0	 0.0	 1	 -30.0	 30.0;
	2186	 2323	 0.0951405162859	 0.176418324059	 0.0165238766949	 94.0	 94.0	 94.0	 0.0	 0.0	 1	 -30.0	 30.0;
	2192	 2198	 0.0113070956447	 0.050853422248	 0.00663802909275	 161.0	 161.0	 161.0	 0.0	 0.0	 1	 -30.0	 30.0;
	2192	 2217	 0.0809689857371	 0.159780265158	 0.0563546512737	 98.0	 98.0	 98.0	 0.0	 0.0	 1	 -30.0	 30.0;
	2193	 2194	 0.00320447570577	 0.0137512614819	 0.00177820065775	 157.0	 157.0	 157.0	 0.0	 0.0	 1	 -30.0	 30.0;
	2193	 2194	 0.00322901010886	 0.0138602282577	 0.00163753939091	 157.0	 157.0	 157.0	 0.0	 0.0	 1	 -30.0	 30.0;
	2193	 2194	 0.00161342752121	 0.0114039842253	 0.00120377232681	 212.0	 212.0	 212.0	 0.0	 0.0	 1	 -30.0	 30.0;
	2193	 2195	 0.00466756014707	 0.0220930798219	 0.0026082038961	 166.0	 166.0	 166.0	 0.0	 0.0	 1	 -30.0	 30.0;
	2193	 2205	 0.0160258609959	 0.0445072908171	 0.00487364297231	 120.0	 120.0	 120.0	 0.0	 0.0	 1	 -30.0	 30.0;
	2193	 2206	 0.01882210075	 0.0513597795757	 0.00927028024764	 119.0	 119.0	 119.0	 0.0	 0.0	 1	 -30.0	 30.0;
	2193	 2190	 0.0205710355764	 0.0578426182695	 0.00568336299875	 121.0	 121.0	 121.0	 0.0	 0.0	 1	 -30.0	 30.0;
	2194	 2195	 0.0035544225969	 0.0115137614379	 0.00130740937202	 132.0	 132.0	 132.0	 0.0	 0.0	 1	 -30.0	 30.0;
	2194	 10112	 0.00281675531511	 0.526563840181	 0.0714626713993	 60.0	 60.0	 60.0	 0.9877	 0.0	 1	 -30.0	 30.0;
	2194	 2190	 0.021964985167	 0.0641314318582	 0.000604994296571	 124.0	 124.0	 124.0	 0.0	 0.0	 1	 -30.0	 30.0;
	2195	 2198	 0.00231737132412	 0.0100412761865	 0.00106770930917	 157.0	 157.0	 157.0	 0.0	 0.0	 1	 -30.0	 30.0;
	2198	 2203	 0.0160672604064	 0.0437558473473	 0.00468396638525	 119.0	 119.0	 119.0	 0.0	 0.0	 1	 -30.0	 30.0;
	2198	 2212	 0.0285963948401	 0.0732199230748	 0.00825107615814	 115.0	 115.0	 115.0	 0.0	 0.0	 1	 -30.0	 30.0;
	2198	 2232	 0.00410662239414	 0.0199696988206	 0.00231968507522	 169.0	 169.0	 169.0	 0.0	 0.0	 1	 -30.0	 30.0;
	2198	 2233	 0.00390492976941	 0.0187910006352	 0.00242773434621	 168.0	 168.0	 168.0	 0.0	 0.0	 1	 -30.0	 30.0;
	2200	 2232	 0.00331615708596	 0.0150896704316	 0.00191441716685	 162.0	 162.0	 162.0	 0.0	 0.0	 1	 -30.0	 30.0;
	2201	 2233	 0.00310765717618	 0.0162673099711	 0.0019262018874	 177.0	 177.0	 177.0	 0.0	 0.0	 1	 -30.0	 30.0;
	2202	 2203	 0.210973417087	 0.184205018252	 0.0149285869955	 60.0	 60.0	 60.0	 0.0	 0.0	 1	 -30.0	 30.0;
	2203	 2313	 0.0403146651823	 0.662383061499	 0.00338165668241	 48.0	 48.0	 48.0	 0.975	 0.0	 1	 -30.0	 30.0;
	2204	 2205	 0.00558545099989	 0.0156784778318	 0.00159407490014	 121.0	 121.0	 121.0	 0.0	 0.0	 1	 -30.0	 30.0;
	2204	 2206	 0.00602572363934	 0.0149021955481	 0.00166519321861	 112.0	 112.0	 112.0	 0.0	 0.0	 1	 -30.0	 30.0;
	2205	 2209	 0.0228305687675	 0.0637682046211	 0.0062292029036	 121.0	 121.0	 121.0	 0.0	 0.0	 1	 -30.0	 30.0;
	2206	 2207	 0.0467533231498	 0.0446517925232	 0.00376175498135	 63.0	 63.0	 63.0	 0.0	 0.0	 1	 -30.0	 30.0;
	2207	 2209	 0.0719883445637	 0.0611633198984	 0.00469509414377	 59.0	 59.0	 59.0	 0.0	 0.0	 1	 -30.0	 30.0;
	2209	 2237	 0.0348107242369	 0.0508604577199	 0.00524508606407	 82.0	 82.0	 82.0	 0.0	 0.0	 1	 -30.0	 30.0;
	2210	 2237	 0.00326963631808	 0.0145342492605	 0.00145874859141	 160.0	 160.0	 160.0	 0.0	 0.0	 1	 -30.0	 30.0;
	2190	 2323	 0.137691854046	 0.279441697138	 0.0236720724191	 99.0	 99.0	 99.0	 0.0	 0.0	 1	 -30.0	 30.0;
	2214	 2220	 0.00546403750034	 0.017164896468	 0.00589143396744	 130.0	 130.0	 130.0	 0.0	 0.0	 1	 -30.0	 30.0;
	2214	 2220	 0.00364758650599	 0.0286067479688	 0.000414263237175	 226.0	 226.0	 226.0	 0.0	 0.0	 1	 -30.0	 30.0;
	2215	 2219	 0.00467363200054	 0.0184289919588	 0.00245152692877	 149.0	 149.0	 149.0	 0.0	 0.0	 1	 -30.0	 30.0;
	2219	 2141	 0.0084303609162	 0.195196638009	 0.0023718655271	 162.0	 162.0	 162.0	 1.04545454545	 0.0	 1	 -30.0	 30.0;
	2217	 2219	 0.0383996458529	 0.156477061172	 0.0190922336807	 152.0	 152.0	 152.0	 0.0	 0.0	 1	 -30.0	 30.0;
	2219	 2137	 1.20097991941	 4.03610643111	 0.00927586424873	 8.0	 8.0	 8.0	 1.03147	 0.0	 1	 -30.0	 30.0;
	2219	 2220	 0.044756923605	 0.128900385602	 0.0126673048162	 123.0	 123.0	 123.0	 0.0	 0.0	 1	 -30.0	 30.0;
	2219	 2220	 0.0424748956083	 0.118662413239	 0.0120168671481	 121.0	 121.0	 121.0	 0.0	 0.0	 1	 -30.0	 30.0;
	2219	 2222	 0.149471301929	 0.242838080968	 0.0196033250698	 87.0	 87.0	 87.0	 0.0	 0.0	 1	 -30.0	 30.0;
	2220	 2224	 0.00517821364049	 0.0257469512591	 0.00295509923136	 171.0	 171.0	 171.0	 0.0	 0.0	 1	 -30.0	 30.0;
	2220	 2224	 0.00513029103585	 0.0261527031624	 0.00319174829688	 174.0	 174.0	 174.0	 0.0	 0.0	 1	 -30.0	 30.0;
	2222	 2231	 0.107316122925	 0.163455119482	 0.0146145668121	 84.0	 84.0	 84.0	 0.0	 0.0	 1	 -30.0	 30.0;
	2223	 2225	 0.000985301995251	 0.00880158392307	 0.0366018740284	 244.0	 244.0	 244.0	 0.0	 0.0	 1	 -30.0	 30.0;
	2223	 2214	 0.00159105404253	 0.0147080881206	 0.0439284534166	 249.0	 249.0	 249.0	 0.0	 0.0	 1	 -30.0	 30.0;
	2239	 2243	 0.00360884330953	 0.0272013538646	 0.052577014936	 440.0	 440.0	 440.0	 0.0	 0.0	 1	 -30.0	 30.0;
	2240	 2243	 0.00368515181838	 0.02729184471	 0.0542524999439	 435.0	 435.0	 435.0	 0.0	 0.0	 1	 -30.0	 30.0;
	2241	 2243	 0.00172089511687	 0.0135833580207	 0.0253619957311	 453.0	 453.0	 453.0	 0.0	 0.0	 1	 -30.0	 30.0;
	2242	 2243	 0.00516263196069	 0.0401278502407	 0.0723725984573	 448.0	 448.0	 448.0	 0.0	 0.0	 1	 -30.0	 30.0;
	2243	 2249	 0.00871177811824	 0.0675740885568	 0.121383383133	 448.0	 448.0	 448.0	 0.0	 0.0	 1	 -30.0	 30.0;
	2243	 2249	 0.00802602507801	 0.0674731232691	 0.117713203229	 470.0	 470.0	 470.0	 0.0	 0.0	 1	 -30.0	 30.0;
	2244	 2249	 0.00683352590427	 0.0387733328807	 0.0597080006736	 370.0	 370.0	 370.0	 0.0	 0.0	 1	 -30.0	 30.0;
	2249	 2329	 0.0133455107097	 0.200680514427	 0.0495893101978	 158.0	 158.0	 158.0	 1.0681	 0.0	 1	 -30.0	 30.0;
	2247	 2249	 0.00383756139899	 0.0192588914578	 0.0348010960884	 344.0	 344.0	 344.0	 0.0	 0.0	 1	 -30.0	 30.0;
	2249	 2164	 0.0116068776357	 0.140779613029	 0.0633475515843	 224.0	 224.0	 224.0	 1.01131	 0.0	 1	 -30.0	 30.0;
	2249	 2250	 0.00791666807699	 0.0572760613928	 0.0898752712113	 429.0	 429.0	 429.0	 0.0	 0.0	 1	 -30.0	 30.0;
	2249	 2250	 0.0082603860242	 0.0566848080727	 0.0913350015336	 416.0	 416.0	 416.0	 0.0	 0.0	 1	 -30.0	 30.0;
	2249	 2269	 0.01493876248	 0.0704094566506	 0.106127778136	 331.0	 331.0	 331.0	 0.0	 0.0	 1	 -30.0	 30.0;
	2250	 2270	 0.00936215698306	 0.0406372266676	 0.0710654132142	 315.0	 315.0	 315.0	 0.0	 0.0	 1	 -30.0	 30.0;
	2250	 2270	 0.0095308059707	 0.0437176421909	 0.0702173933262	 326.0	 326.0	 326.0	 0.0	 0.0	 1	 -30.0	 30.0;
	2255	 2259	 0.00424138476648	 0.0205666269986	 0.0301809285452	 337.0	 337.0	 337.0	 0.0	 0.0	 1	 -30.0	 30.0;
	2255	 2262	 0.0164515101986	 0.0682358937425	 0.113282979366	 306.0	 306.0	 306.0	 0.0	 0.0	 1	 -30.0	 30.0;
	2255	 2268	 0.00655462548103	 0.0304432815257	 0.0426581844655	 328.0	 328.0	 328.0	 0.0	 0.0	 1	 -30.0	 30.0;
	2255	 2268	 0.00343435743288	 0.0259922985119	 0.0477408341363	 441.0	 441.0	 441.0	 0.0	 0.0	 1	 -30.0	 30.0;
	2259	 2262	 0.0110675164723	 0.0520011691326	 0.0856549351765	 330.0	 330.0	 330.0	 0.0	 0.0	 1	 -30.0	 30.0;
	2261	 2262	 0.0132215266532	 0.0893400032262	 0.157666756027	 412.0	 412.0	 412.0	 0.0	 0.0	 1	 -30.0	 30.0;
	2261	 2262	 0.0145171332656	 0.0938426300478	 0.168644954841	 401.0	 401.0	 401.0	 0.0	 0.0	 1	 -30.0	 30.0;
	2263	 2268	 0.0131560796875	 0.0824582268278	 0.142504390296	 393.0	 393.0	 393.0	 0.0	 0.0	 1	 -30.0	 30.0;
	2263	 2268	 0.0129197396137	 0.0796015323961	 0.14335068766	 389.0	 389.0	 389.0	 0.0	 0.0	 1	 -30.0	 30.0;
	2269	 2142	 0.00534979214151	 0.182977587129	 0.00877871706562	 173.0	 173.0	 173.0	 1.0681	 0.0	 1	 -30.0	 30.0;
	2269	 2144	 0.0055291704363	 0.184715234765	 0.00860378797939	 171.0	 171.0	 171.0	 1.0681	 0.0	 1	 -30.0	 30.0;
	2269	 2145	 0.00616940694479	 0.175450423586	 0.00893260457992	 180.0	 180.0	 180.0	 1.0681	 0.0	 1	 -30.0	 30.0;
	2268	 2269	 0.00471877332513	 0.0376735130684	 0.0714420340517	 456.0	 456.0	 456.0	 0.0	 0.0	 1	 -30.0	 30.0;
	2268	 2269	 0.00464160583745	 0.0377672696763	 0.0658089057264	 461.0	 461.0	 461.0	 0.0	 0.0	 1	 -30.0	 30.0;
	2269	 2270	 0.00596531706803	 0.0270741644934	 0.0483460714225	 323.0	 323.0	 323.0	 0.0	 0.0	 1	 -30.0	 30.0;
	2269	 2270	 0.00619035982258	 0.0279026709165	 0.0490064073603	 322.0	 322.0	 322.0	 0.0	 0.0	 1	 -30.0	 30.0;
	2315	 2320	 0.0378443095275	 0.0565518260573	 0.00156248425743	 17.0	 17.0	 17.0	 0.0	 0.0	 1	 -30.0	 30.0;
	2315	 2320	 0.0390479045201	 0.0570860607866	 0.00166782256778	 17.0	 17.0	 17.0	 0.0	 0.0	 1	 -30.0	 30.0;
	2140	 2215	 0.00325528849623	 0.177605506471	 -5e-07	 178.0	 178.0	 178.0	 0.95652173913	 0.0	 1	 -30.0	 30.0;
	2146	 2319	 0.00953248890599	 0.0976791594336	 -5e-07	 322.0	 322.0	 322.0	 1.01449275362	 0.0	 1	 -30.0	 30.0;
	2147	 2148	 0.0106288813461	 0.117680721349	 -5e-07	 268.0	 268.0	 268.0	 0.959595959596	 0.0	 1	 -30.0	 30.0;
	2112	 2149	 0.019511938914	 0.386358596284	 -5e-07	 82.0	 82.0	 82.0	 0.975	 0.0	 1	 -30.0	 30.0;
	2112	 2150	 0.0186132788376	 0.369193720572	 -5e-07	 86.0	 86.0	 86.0	 0.975	 0.0	 1	 -30.0	 30.0;
	2153	 2279	 0.0227478390924	 0.552189815384	 -5e-07	 58.0	 58.0	 58.0	 0.9875	 0.0	 1	 -30.0	 30.0;
	2153	 2279	 0.0222802043221	 0.535390184378	 -5e-07	 59.0	 59.0	 59.0	 0.9875	 0.0	 1	 -30.0	 30.0;
	2155	 2280	 0.0195879369143	 0.50262311179	 -5e-07	 63.0	 63.0	 63.0	 1.01154	 0.0	 1	 -30.0	 30.0;
	2155	 2280	 0.0135180096767	 0.495316724224	 -5e-07	 64.0	 64.0	 64.0	 1.0116	 0.0	 1	 -30.0	 30.0;
	2155	 2281	 0.0577339991314	 0.950869187511	 -5e-07	 34.0	 34.0	 34.0	 1.0454	 0.0	 1	 -30.0	 30.0;
	2155	 2281	 0.055209133621	 0.933929222836	 -5e-07	 34.0	 34.0	 34.0	 1.0454	 0.0	 1	 -30.0	 30.0;
	2157	 2282	 0.03425957737	 0.575543100686	 -5e-07	 55.0	 55.0	 55.0	 1.0	 0.0	 1	 -30.0	 30.0;
	2158	 2283	 0.110024274839	 1.33068123553	 -5e-07	 24.0	 24.0	 24.0	 0.976	 0.0	 1	 -30.0	 30.0;
	2158	 2284	 0.080509125714	 1.1480548445	 -5e-07	 28.0	 28.0	 28.0	 1.0	 0.0	 1	 -30.0	 30.0;
	2161	 2119	 0.00732376687037	 0.226450992076	 -5e-07	 140.0	 140.0	 140.0	 1.0773	 0.0	 1	 -30.0	 30.0;
	2162	 2285	 0.0142223943406	 0.486981815144	 -5e-07	 65.0	 65.0	 65.0	 1.0	 0.0	 1	 -30.0	 30.0;
	2162	 2285	 0.0141277478943	 0.474006876834	 -5e-07	 67.0	 67.0	 67.0	 1.0	 0.0	 1	 -30.0	 30.0;
	2163	 2286	 0.0254684135815	 0.384457039646	 -5e-07	 82.0	 82.0	 82.0	 0.9875	 0.0	 1	 -30.0	 30.0;
	2163	 2286	 0.0269802282587	 0.405389597159	 -5e-07	 78.0	 78.0	 78.0	 0.975	 0.0	 1	 -30.0	 30.0;
	2164	 2287	 0.0131461361513	 0.323965155563	 -5e-07	 98.0	 98.0	 98.0	 1.01362	 0.0	 1	 -30.0	 30.0;
	2164	 2287	 0.0128083302407	 0.31119278951	 -5e-07	 102.0	 102.0	 102.0	 1.01362	 0.0	 1	 -30.0	 30.0;
	2165	 2288	 0.0191450692851	 0.571359644646	 -5e-07	 56.0	 56.0	 56.0	 1.0125	 0.0	 1	 -30.0	 30.0;
	2165	 2288	 0.0198637862496	 0.613492127221	 -5e-07	 52.0	 52.0	 52.0	 1.0125	 0.0	 1	 -30.0	 30.0;
	2167	 2289	 0.01429953662	 0.445263153061	 -5e-07	 71.0	 71.0	 71.0	 0.98636	 0.0	 1	 -30.0	 30.0;
	2167	 2289	 0.0138235162498	 0.54509641662	 -5e-07	 58.0	 58.0	 58.0	 0.98636	 0.0	 1	 -30.0	 30.0;
	2168	 2290	 0.0196101853489	 0.500290354249	 -5e-07	 64.0	 64.0	 64.0	 0.975	 0.0	 1	 -30.0	 30.0;
	2168	 2290	 0.0183435195747	 0.487525330807	 -5e-07	 65.0	 65.0	 65.0	 0.975	 0.0	 1	 -30.0	 30.0;
	2168	 2290	 0.0143708840273	 0.533604117352	 -5e-07	 60.0	 60.0	 60.0	 0.975	 0.0	 1	 -30.0	 30.0;
	2169	 2272	 0.0290935180671	 0.625318664805	 -5e-07	 51.0	 51.0	 51.0	 1.0	 0.0	 1	 -30.0	 30.0;
	2169	 2272	 0.0295133979923	 0.592716803482	 -5e-07	 54.0	 54.0	 54.0	 0.975	 0.0	 1	 -30.0	 30.0;
	2170	 2291	 0.0133025353251	 0.508686917432	 -5e-07	 63.0	 63.0	 63.0	 0.9625	 0.0	 1	 -30.0	 30.0;
	2170	 2291	 0.0134689722667	 0.515581078614	 -5e-07	 62.0	 62.0	 62.0	 0.9625	 0.0	 1	 -30.0	 30.0;
	2171	 2273	 0.0262331016249	 0.386089733051	 -5e-07	 82.0	 82.0	 82.0	 0.9625	 0.0	 1	 -30.0	 30.0;
	2171	 2273	 0.0276127085623	 0.416311396601	 -5e-07	 76.0	 76.0	 76.0	 0.9625	 0.0	 1	 -30.0	 30.0;
	2173	 2292	 0.0294456702587	 0.607578981626	 -5e-07	 52.0	 52.0	 52.0	 1.02556	 0.0	 1	 -30.0	 30.0;
	2173	 2292	 0.00775979971026	 0.512117724958	 -5e-07	 62.0	 62.0	 62.0	 1.02556	 0.0	 1	 -30.0	 30.0;
	2177	 2293	 0.011936535418	 0.268125728637	 -5e-07	 118.0	 118.0	 118.0	 1.0	 0.0	 1	 -30.0	 30.0;
	2177	 2293	 0.0115782059556	 0.248462669683	 -5e-07	 127.0	 127.0	 127.0	 1.0	 0.0	 1	 -30.0	 30.0;
	2178	 2294	 0.059707829617	 0.909811163372	 -5e-07	 35.0	 35.0	 35.0	 1.0495	 0.0	 1	 -30.0	 30.0;
	2127	 2323	 0.00552488081702	 0.204241359352	 0.000999194216205	 155.0	 155.0	 155.0	 1.0	 0.0	 1	 -30.0	 30.0;
	2128	 2323	 0.00561112386908	 0.2129076695	 8.82184142992e-05	 149.0	 149.0	 149.0	 1.0	 0.0	 1	 -30.0	 30.0;
	2186	 2133	 0.00843763616704	 0.200659136226	 -5e-07	 158.0	 158.0	 158.0	 1.04545	 0.0	 1	 -30.0	 30.0;
	2186	 2296	 0.0213060678714	 0.514579037362	 -5e-07	 62.0	 62.0	 62.0	 0.964	 0.0	 1	 -30.0	 30.0;
	2189	 2297	 0.123067366613	 1.52533411147	 -5e-07	 21.0	 21.0	 21.0	 1.0	 0.0	 1	 -30.0	 30.0;
	2190	 2274	 0.0290235147771	 0.636134454327	 -5e-07	 50.0	 50.0	 50.0	 1.0	 0.0	 1	 -30.0	 30.0;
	2190	 2274	 0.0214868049498	 0.645020761556	 -5e-07	 49.0	 49.0	 49.0	 1.0	 0.0	 1	 -30.0	 30.0;
	2192	 2298	 0.0281615511754	 0.625461483213	 -5e-07	 51.0	 51.0	 51.0	 1.01222	 0.0	 1	 -30.0	 30.0;
	2192	 2299	 0.0201050772011	 0.66240904637	 -5e-07	 48.0	 48.0	 48.0	 1.01222	 0.0	 1	 -30.0	 30.0;
	2194	 2336	 0.0067513101057	 0.305115034068	 -5e-07	 104.0	 104.0	 104.0	 1.0125	 0.0	 1	 -30.0	 30.0;
	2194	 2336	 0.00706588606525	 0.298336804449	 -5e-07	 106.0	 106.0	 106.0	 1.0125	 0.0	 1	 -30.0	 30.0;
	2194	 2336	 0.00719841202807	 0.297849430831	 -5e-07	 107.0	 107.0	 107.0	 1.0125	 0.0	 1	 -30.0	 30.0;
	2195	 2277	 0.00700402279582	 0.422563517086	 -5e-07	 75.0	 75.0	 75.0	 0.97724	 0.0	 1	 -30.0	 30.0;
	2195	 2277	 0.00683364557676	 0.392629356985	 -5e-07	 81.0	 81.0	 81.0	 0.97724	 0.0	 1	 -30.0	 30.0;
	2195	 2277	 0.00695451949928	 0.386758330225	 -5e-07	 82.0	 82.0	 82.0	 0.97724	 0.0	 1	 -30.0	 30.0;
	2195	 2324	 9.99999996566e-10	 0.101220519969	 -5e-07	 313.0	 313.0	 313.0	 0.97578	 0.0	 1	 -30.0	 30.0;
	2195	 2325	 9.9999998929e-10	 0.0966365380293	 -5e-07	 327.0	 327.0	 327.0	 0.97578	 0.0	 1	 -30.0	 30.0;
	2195	 2326	 9.99999996566e-10	 0.101442471846	 -5e-07	 312.0	 312.0	 312.0	 0.97578	 0.0	 1	 -30.0	 30.0;
	2198	 2278	 0.0155874284169	 0.400714549992	 -5e-07	 79.0	 79.0	 79.0	 1.0	 0.0	 1	 -30.0	 30.0;
	2198	 2278	 0.0153935580371	 0.388070154157	 -5e-07	 82.0	 82.0	 82.0	 1.0	 0.0	 1	 -30.0	 30.0;
	2200	 2304	 0.0215926686041	 0.691785922603	 -5e-07	 46.0	 46.0	 46.0	 1.0	 0.0	 1	 -30.0	 30.0;
	2201	 2305	 0.0225065820379	 0.665433695637	 -5e-07	 48.0	 48.0	 48.0	 1.0	 0.0	 1	 -30.0	 30.0;
	2202	 2306	 0.0195789341514	 0.545847475992	 -5e-07	 58.0	 58.0	 58.0	 1.0	 0.0	 1	 -30.0	 30.0;
	2202	 2307	 0.020011691177	 0.511415508905	 -5e-07	 62.0	 62.0	 62.0	 1.0	 0.0	 1	 -30.0	 30.0;
	2204	 2199	 0.0160470386159	 0.382427686219	 -5e-07	 83.0	 83.0	 83.0	 0.93172	 0.0	 1	 -30.0	 30.0;
	2204	 2199	 0.0167784369264	 0.381690919358	 -5e-07	 83.0	 83.0	 83.0	 0.93172	 0.0	 1	 -30.0	 30.0;
	2204	 2308	 0.0213258953499	 0.689187095127	 -5e-07	 46.0	 46.0	 46.0	 1.0	 0.0	 1	 -30.0	 30.0;
	2204	 2309	 0.0218493033981	 0.643070689127	 -5e-07	 50.0	 50.0	 50.0	 0.98778	 0.0	 1	 -30.0	 30.0;
	2207	 2310	 0.0214628861182	 0.485476874372	 -5e-07	 66.0	 66.0	 66.0	 1.0	 0.0	 1	 -30.0	 30.0;
	2207	 2310	 0.0211668452803	 0.474653195433	 -5e-07	 67.0	 67.0	 67.0	 1.0	 0.0	 1	 -30.0	 30.0;
	2208	 2311	 0.0404404426658	 0.796594669873	 -5e-07	 40.0	 40.0	 40.0	 0.9625	 0.0	 1	 -30.0	 30.0;
	2209	 2311	 0.0383170167085	 0.869999160803	 -5e-07	 37.0	 37.0	 37.0	 0.975	 0.0	 1	 -30.0	 30.0;
	2210	 2312	 0.0539738688496	 0.996106503408	 -5e-07	 32.0	 32.0	 32.0	 1.0	 0.0	 1	 -30.0	 30.0;
	2210	 2312	 0.0566573101837	 1.00148666329	 -5e-07	 32.0	 32.0	 32.0	 1.0	 0.0	 1	 -30.0	 30.0;
	2212	 2313	 0.0281873795681	 0.64618776925	 -5e-07	 49.0	 49.0	 49.0	 0.975	 0.0	 1	 -30.0	 30.0;
	2190	 2314	 0.0169546861145	 0.624685969925	 -5e-07	 51.0	 51.0	 51.0	 1.0	 0.0	 1	 -30.0	 30.0;
	2190	 2314	 0.0161417475118	 0.627529661737	 -5e-07	 51.0	 51.0	 51.0	 1.0	 0.0	 1	 -30.0	 30.0;
	2214	 2138	 9.9999998929e-10	 0.1898516919	 -5e-07	 167.0	 167.0	 167.0	 0.98818	 0.0	 1	 -30.0	 30.0;
	2214	 2139	 1.00000000384e-09	 0.175186275393	 -5e-07	 181.0	 181.0	 181.0	 0.98818	 0.0	 1	 -30.0	 30.0;
	2214	 2315	 0.00883536152431	 0.504799750417	 -5e-07	 63.0	 63.0	 63.0	 1.01278	 0.0	 1	 -30.0	 30.0;
	2214	 2315	 0.00922483153379	 0.496381389837	 -5e-07	 64.0	 64.0	 64.0	 1.01278	 0.0	 1	 -30.0	 30.0;
	2214	 2315	 0.00889767753646	 0.504412578878	 -5e-07	 63.0	 63.0	 63.0	 1.01278	 0.0	 1	 -30.0	 30.0;
...
];

% INFO    : === Translation Options ===
% INFO    : Load Model:                  from file ./pglib_opf_case197_snem.m.api.sol
% INFO    : Gen Active Capacity Model:   stat
% INFO    : Gen Reactive Capacity Model: al50ag
% INFO    : Gen Active Cost Model:       stat
% INFO    : 
% INFO    : === Load Replacement Notes ===
% INFO    : Bus 2112	: Pd=-18.456624726, Qd=0.0 -> Pd=-18.46, Qd=0.00
% INFO    : Bus 2118	: Pd=1.43784302386, Qd=0.0 -> Pd=1.44, Qd=0.00
% INFO    : Bus 2124	: Pd=5.34111425835, Qd=1.84528285785 -> Pd=9.55, Qd=1.85
% INFO    : Bus 2146	: Pd=-7.48757228344, Qd=0.0 -> Pd=-7.49, Qd=0.00
% INFO    : Bus 2175	: Pd=109.560738771, Qd=5.56446601437 -> Pd=195.98, Qd=5.56
% INFO    : Bus 2199	: Pd=4.14840343669, Qd=1.22681196274 -> Pd=7.42, Qd=1.23
% INFO    : Bus 2221	: Pd=25.5331817143, Qd=4.24297217382 -> Pd=45.67, Qd=4.24
% INFO    : Bus 2226	: Pd=0.844463851361, Qd=0.811486859629 -> Pd=1.51, Qd=0.81
% INFO    : Bus 2228	: Pd=1.24574926804, Qd=-0.664264286632 -> Pd=1.25, Qd=-0.66
% INFO    : Bus 2234	: Pd=6.30917010283, Qd=0.352394917171 -> Pd=11.29, Qd=0.35
% INFO    : Bus 2235	: Pd=6.3943493002, Qd=0.321420691079 -> Pd=11.44, Qd=0.32
% INFO    : Bus 2250	: Pd=761.802095829, Qd=94.3982822715 -> Pd=1362.69, Qd=94.40
% INFO    : Bus 2272	: Pd=0.100036499291, Qd=-0.133309902946 -> Pd=0.10, Qd=-0.13
% INFO    : Bus 2273	: Pd=19.957788692, Qd=4.78594959717 -> Pd=35.70, Qd=4.79
% INFO    : Bus 2274	: Pd=14.1049076988, Qd=9.04776996574 -> Pd=25.23, Qd=9.05
% INFO    : Bus 2275	: Pd=11.1868502881, Qd=5.3734801524 -> Pd=20.01, Qd=5.37
% INFO    : Bus 2276	: Pd=1.23310786749, Qd=0.521934969552 -> Pd=2.21, Qd=0.52
% INFO    : Bus 2277	: Pd=38.2656446436, Qd=12.0837698976 -> Pd=68.45, Qd=12.08
% INFO    : Bus 2278	: Pd=15.3479710077, Qd=0.179780361418 -> Pd=27.45, Qd=0.18
% INFO    : Bus 2279	: Pd=28.1220396346, Qd=17.0941187588 -> Pd=50.30, Qd=17.09
% INFO    : Bus 2280	: Pd=2.29266869862, Qd=-0.219341768899 -> Pd=2.29, Qd=-0.22
% INFO    : Bus 2281	: Pd=-5.28103313928, Qd=1.57365585479 -> Pd=-5.28, Qd=1.57
% INFO    : Bus 2282	: Pd=0.595466476637, Qd=0.164574361555 -> Pd=1.07, Qd=0.16
% INFO    : Bus 2283	: Pd=2.86565043063, Qd=0.918062184471 -> Pd=5.13, Qd=0.92
% INFO    : Bus 2284	: Pd=0.102155048288, Qd=-0.0762418273165 -> Pd=0.10, Qd=-0.08
% INFO    : Bus 2285	: Pd=14.8939685162, Qd=5.50440336707 -> Pd=26.64, Qd=5.50
% INFO    : Bus 2286	: Pd=12.7940563151, Qd=4.23152802724 -> Pd=22.89, Qd=4.23
% INFO    : Bus 2287	: Pd=32.8164347707, Qd=4.93834843893 -> Pd=58.70, Qd=4.94
% INFO    : Bus 2288	: Pd=4.96928669102, Qd=2.31230359605 -> Pd=8.89, Qd=2.31
% INFO    : Bus 2289	: Pd=11.8889887202, Qd=2.24300578809 -> Pd=21.27, Qd=2.24
% INFO    : Bus 2290	: Pd=35.35571077, Qd=11.4391733684 -> Pd=63.24, Qd=11.44
% INFO    : Bus 2291	: Pd=37.0487818044, Qd=13.5631675561 -> Pd=66.27, Qd=13.56
% INFO    : Bus 2292	: Pd=9.25709532036, Qd=1.28527849578 -> Pd=16.56, Qd=1.29
% INFO    : Bus 2293	: Pd=6.8196875433, Qd=1.66570804022 -> Pd=12.20, Qd=1.67
% INFO    : Bus 2295	: Pd=1.12772044054, Qd=-0.131104909686 -> Pd=1.13, Qd=-0.13
% INFO    : Bus 2296	: Pd=3.91795778259, Qd=1.12945814219 -> Pd=7.01, Qd=1.13
% INFO    : Bus 2297	: Pd=0.098455395028, Qd=-0.159011451974 -> Pd=0.10, Qd=-0.16
% INFO    : Bus 2298	: Pd=7.00533022556, Qd=0.634266090953 -> Pd=12.53, Qd=0.63
% INFO    : Bus 2299	: Pd=4.76784311741, Qd=-0.357622153863 -> Pd=4.77, Qd=-0.36
% INFO    : Bus 2300	: Pd=6.81737639888, Qd=1.52931806039 -> Pd=12.19, Qd=1.53
% INFO    : Bus 2301	: Pd=6.35761379468, Qd=1.10483449831 -> Pd=11.37, Qd=1.10
% INFO    : Bus 2302	: Pd=10.5558431011, Qd=3.5135687363 -> Pd=18.88, Qd=3.51
% INFO    : Bus 2303	: Pd=7.95474462004, Qd=1.73341208709 -> Pd=14.23, Qd=1.73
% INFO    : Bus 2304	: Pd=2.91458506392, Qd=-0.202324895334 -> Pd=2.91, Qd=-0.20
% INFO    : Bus 2305	: Pd=3.20082082542, Qd=-0.0306372322947 -> Pd=3.20, Qd=-0.03
% INFO    : Bus 2306	: Pd=1.23069639581, Qd=0.148527247898 -> Pd=2.20, Qd=0.15
% INFO    : Bus 2307	: Pd=1.22012735772, Qd=0.141469365238 -> Pd=2.18, Qd=0.14
% INFO    : Bus 2308	: Pd=2.69741274876, Qd=-0.518176212408 -> Pd=2.70, Qd=-0.52
% INFO    : Bus 2309	: Pd=3.66248952774, Qd=0.268230288469 -> Pd=6.55, Qd=0.27
% INFO    : Bus 2310	: Pd=4.3878279769, Qd=1.24416995375 -> Pd=7.85, Qd=1.24
% INFO    : Bus 2311	: Pd=11.3146026349, Qd=3.43865919711 -> Pd=20.24, Qd=3.44
% INFO    : Bus 2312	: Pd=3.43738724451, Qd=1.20643423757 -> Pd=6.15, Qd=1.21
% INFO    : Bus 2313	: Pd=12.7508150782, Qd=0.933697498767 -> Pd=22.81, Qd=0.93
% INFO    : Bus 2314	: Pd=10.6750374615, Qd=2.72001893004 -> Pd=19.10, Qd=2.72
% INFO    : Bus 2315	: Pd=29.5849414279, Qd=5.38569534337 -> Pd=52.92, Qd=5.39
% INFO    : Bus 2316	: Pd=5.9921608533, Qd=2.30522543602 -> Pd=10.72, Qd=2.31
% INFO    : Bus 2317	: Pd=9.06709590132, Qd=2.28521256108 -> Pd=16.22, Qd=2.29
% INFO    : Bus 2318	: Pd=10.3675748841, Qd=-0.0485898785247 -> Pd=10.37, Qd=-0.05
% INFO    : Bus 2320	: Pd=16.1407656257, Qd=3.39817422641 -> Pd=28.87, Qd=3.40
% INFO    : Bus 2321	: Pd=5.5121708044, Qd=-0.297153097662 -> Pd=5.51, Qd=-0.30
% INFO    : Bus 2322	: Pd=0.268542500051, Qd=0.319257627793 -> Pd=0.48, Qd=0.32
% INFO    : Bus 2336	: Pd=32.7033081653, Qd=10.6544866268 -> Pd=58.50, Qd=10.65
% INFO    : Bus 2337	: Pd=49.5337823698, Qd=16.2479222761 -> Pd=88.60, Qd=16.25
% INFO    : Bus 2338	: Pd=1.71129514995, Qd=2.64945633324 -> Pd=3.06, Qd=2.65
% INFO    : Bus 2339	: Pd=15.7169929211, Qd=-4.31763789598 -> Pd=15.72, Qd=-4.32
% INFO    : 
% INFO    : === Generator Setpoint Replacement Notes ===
% INFO    : Gen at bus 2114	: Pg=75.0, Qg=10.0 -> Pg=67.0, Qg=-11.0
% INFO    : Gen at bus 2115	: Pg=75.0, Qg=5.0 -> Pg=67.0, Qg=-12.0
% INFO    : Gen at bus 2116	: Pg=50.0, Qg=10.0 -> Pg=45.0, Qg=-1.0
% INFO    : Gen at bus 2117	: Pg=30.0, Qg=0.0 -> Pg=42.0, Qg=-31.0
% INFO    : Gen at bus 2118	: Pg=65.0, Qg=5.0 -> Pg=81.0, Qg=-47.0
% INFO    : Gen at bus 2119	: Pg=20.0, Qg=0.0 -> Pg=37.0, Qg=-3.0
% INFO    : Gen at bus 2123	: Pg=40.0, Qg=10.0 -> Pg=0.0, Qg=-60.0
% INFO    : Gen at bus 2124	: Pg=100.0, Qg=40.0 -> Pg=128.0, Qg=-84.0
% INFO    : Gen at bus 2125	: Pg=50.0, Qg=25.0 -> Pg=69.0, Qg=-46.0
% INFO    : Gen at bus 2126	: Pg=10.0, Qg=5.0 -> Pg=11.0, Qg=-4.0
% INFO    : Gen at bus 2127	: Pg=25.0, Qg=0.0 -> Pg=22.0, Qg=-16.0
% INFO    : Gen at bus 2128	: Pg=25.0, Qg=0.0 -> Pg=22.0, Qg=-15.0
% INFO    : Gen at bus 2129	: Pg=20.0, Qg=5.0 -> Pg=19.0, Qg=2.0
% INFO    : Gen at bus 2130	: Pg=20.0, Qg=5.0 -> Pg=19.0, Qg=2.0
% INFO    : Gen at bus 2131	: Pg=20.0, Qg=5.0 -> Pg=19.0, Qg=2.0
% INFO    : Gen at bus 2132	: Pg=20.0, Qg=10.0 -> Pg=31.0, Qg=-5.0
% INFO    : Gen at bus 2133	: Pg=30.0, Qg=10.0 -> Pg=33.0, Qg=9.0
% INFO    : Gen at bus 2134	: Pg=85.0, Qg=10.0 -> Pg=62.0, Qg=7.0
% INFO    : Gen at bus 2135	: Pg=90.0, Qg=5.0 -> Pg=61.0, Qg=7.0
% INFO    : Gen at bus 2136	: Pg=85.0, Qg=10.0 -> Pg=63.0, Qg=6.0
% INFO    : Gen at bus 2138	: Pg=20.0, Qg=5.0 -> Pg=46.0, Qg=-31.0
% INFO    : Gen at bus 2139	: Pg=20.0, Qg=5.0 -> Pg=49.0, Qg=-34.0
% INFO    : Gen at bus 2140	: Pg=35.0, Qg=10.0 -> Pg=32.0, Qg=-16.0
% INFO    : Gen at bus 2142	: Pg=35.0, Qg=15.0 -> Pg=45.0, Qg=-10.0
% INFO    : Gen at bus 2143	: Pg=35.0, Qg=15.0 -> Pg=47.0, Qg=-14.0
% INFO    : Gen at bus 2144	: Pg=35.0, Qg=15.0 -> Pg=45.0, Qg=-10.0
% INFO    : Gen at bus 2148	: Pg=45.0, Qg=-5.0 -> Pg=41.0, Qg=-11.0
% INFO    : Gen at bus 2329	: Pg=35.0, Qg=5.0 -> Pg=46.0, Qg=-13.0
% INFO    : Gen at bus 2330	: Pg=20.0, Qg=5.0 -> Pg=28.0, Qg=-4.0
% INFO    : Gen at bus 2331	: Pg=20.0, Qg=0.0 -> Pg=24.0, Qg=-3.0
% INFO    : Gen at bus 2332	: Pg=20.0, Qg=-5.0 -> Pg=23.0, Qg=-3.0
% INFO    : Gen at bus 2333	: Pg=10.0, Qg=0.0 -> Pg=40.0, Qg=-11.0
% INFO    : Gen at bus 2334	: Pg=20.0, Qg=5.0 -> Pg=25.0, Qg=-4.0
% INFO    : Gen at bus 2335	: Pg=20.0, Qg=5.0 -> Pg=24.0, Qg=-3.0
% INFO    : Gen at bus 2250	: Pg=275.0, Qg=5.0 -> Pg=1249.0, Qg=278.0
% INFO    : 
% INFO    : === Generator Reactive Capacity Atleast Setpoint Value Notes ===
% INFO    : Gen at bus 2117	: Qg -31.0, Qmin -20.0, Qmax 20.0 -> Qmin -37.2, Qmax 37.2
% INFO    : Gen at bus 2123	: Qg -60.0, Qmin -30.0, Qmax 50.0 -> Qmin -72.0, Qmax 72.0
% INFO    : Gen at bus 2124	: Qg -84.0, Qmin -40.0, Qmax 120.0 -> Qmin -100.8, Qmax 120.0
% INFO    : Gen at bus 2125	: Qg -46.0, Qmin -20.0, Qmax 70.0 -> Qmin -55.2, Qmax 70.0
% INFO    : Gen at bus 2138	: Qg -31.0, Qmin -30.0, Qmax 40.0 -> Qmin -37.2, Qmax 40.0
% INFO    : Gen at bus 2139	: Qg -34.0, Qmin -10.0, Qmax 20.0 -> Qmin -40.8, Qmax 40.8
% INFO    : Gen at bus 2148	: Qg -11.0, Qmin -20.0, Qmax 10.0 -> Qmin -20.0, Qmax 13.2
% INFO    : Gen at bus 2333	: Qg -11.0, Qmin -10.0, Qmax 10.0 -> Qmin -13.2, Qmax 13.2
% INFO    : 
% INFO    : === Generator Classification Notes ===
% INFO    : PEL    6   -     8.60
% INFO    : COW    7   -    10.74
% INFO    : NG     22  -    80.65
% INFO    : 
% INFO    : === Generator Active Capacity Stat Model Notes ===
% INFO    : Gen at bus 2114 - NG	: Pg=67.0, Pmax=150.0 -> Pmax=92   samples: 1
% INFO    : Gen at bus 2115 - COW	: Pg=67.0, Pmax=150.0 -> Pmax=219   samples: 2
% INFO    : Gen at bus 2116 - NG	: Pg=45.0, Pmax=100.0 -> Pmax=144   samples: 5
% INFO    : Gen at bus 2117 - PEL	: Pg=42.0, Pmax=60.0 -> Pmax=194   samples: 3
% INFO    : Gen at bus 2118 - NG	: Pg=81.0, Pmax=130.0 -> Pmax=269   samples: 1
% INFO    : Gen at bus 2119 - COW	: Pg=37.0, Pmax=40.0 -> Pmax=174   samples: 5
% INFO    : Gen at bus 2123 - NG	: Pg=0.0, Pmax=80.0 -> Pmax=80   samples: 1
% INFO    : Gen at bus 2124 - NG	: Pg=128.0, Pmax=200.0 -> Pmax=345   samples: 1
% INFO    : Gen at bus 2125 - NG	: Pg=69.0, Pmax=100.0 -> Pmax=227   samples: 3
% INFO    : Gen at bus 2126 - NG	: Pg=11.0, Pmax=20.0 -> Pmax=25   samples: 1
% INFO    : Gen at bus 2127 - NG	: Pg=22.0, Pmax=50.0 -> Pmax=54   samples: 10
% INFO    : Gen at bus 2128 - NG	: Pg=22.0, Pmax=50.0 -> Pmax=77   samples: 3
% INFO    : Gen at bus 2129 - PEL	: Pg=19.0, Pmax=40.0 -> Pmax=54   samples: 1
% INFO    : Gen at bus 2130 - NG	: Pg=19.0, Pmax=40.0 -> Pmax=82   samples: 1
% INFO    : Gen at bus 2131 - NG	: Pg=19.0, Pmax=40.0 -> Pmax=50   samples: 1
% INFO    : Gen at bus 2132 - PEL	: Pg=31.0, Pmax=40.0 -> Pmax=45   samples: 1
% INFO    : Gen at bus 2133 - COW	: Pg=33.0, Pmax=60.0 -> Pmax=70   samples: 13
% INFO    : Gen at bus 2134 - NG	: Pg=62.0, Pmax=170.0 -> Pmax=117   samples: 1
% INFO    : Gen at bus 2135 - COW	: Pg=61.0, Pmax=180.0 -> Pmax=137   samples: 1
% INFO    : Gen at bus 2136 - NG	: Pg=63.0, Pmax=170.0 -> Pmax=77   samples: 1
% INFO    : Gen at bus 2138 - NG	: Pg=46.0, Pmax=40.0 -> Pmax=60   samples: 3
% INFO    : Gen at bus 2139 - NG	: Pg=49.0, Pmax=40.0 -> Pmax=114   samples: 1
% INFO    : Gen at bus 2140 - NG	: Pg=32.0, Pmax=70.0 -> Pmax=50   samples: 2
% INFO    : Gen at bus 2142 - PEL	: Pg=45.0, Pmax=70.0 -> Pmax=118   samples: 9
% INFO    : Gen at bus 2143 - PEL	: Pg=47.0, Pmax=70.0 -> Pmax=66   samples: 5
% INFO    : Gen at bus 2144 - PEL	: Pg=45.0, Pmax=70.0 -> Pmax=136   samples: 4
% INFO    : Gen at bus 2148 - NG	: Pg=41.0, Pmax=90.0 -> Pmax=195   samples: 1
% INFO    : Gen at bus 2329 - NG	: Pg=46.0, Pmax=70.0 -> Pmax=57   samples: 1
% INFO    : Gen at bus 2330 - NG	: Pg=28.0, Pmax=40.0 -> Pmax=33   samples: 6
% INFO    : Gen at bus 2331 - NG	: Pg=24.0, Pmax=40.0 -> Pmax=34   samples: 2
% INFO    : Gen at bus 2332 - COW	: Pg=23.0, Pmax=40.0 -> Pmax=41   samples: 1
% INFO    : Gen at bus 2333 - COW	: Pg=40.0, Pmax=20.0 -> Pmax=168   samples: 3
% INFO    : Gen at bus 2334 - COW	: Pg=25.0, Pmax=40.0 -> Pmax=46   samples: 1
% INFO    : Gen at bus 2335 - NG	: Pg=24.0, Pmax=40.0 -> Pmax=110   samples: 3
% WARNING : Failed to find a generator capacity within (1249.0-6245.0) after 100 samples, using percent increase model
% INFO    : Gen at bus 2250 - NG	: Pg=1249.0, Pmax=550.0 -> Pmax=1410   samples: 100
% INFO    : 
% INFO    : === Generator Active Capacity LB Model Notes ===
% INFO    : 
% INFO    : === Generator Reactive Capacity Atleast Max 50 Percent Active Model Notes ===
% INFO    : Gen at bus 2116 - NG	: Pmax 144.0, Qmin -40.0, Qmax 60.0 -> Qmin -72.0, Qmax 72.0
% INFO    : Gen at bus 2117 - PEL	: Pmax 194.0, Qmin -37.2, Qmax 37.2 -> Qmin -97.0, Qmax 97.0
% INFO    : Gen at bus 2118 - NG	: Pmax 269.0, Qmin -80.0, Qmax 90.0 -> Qmin -135.0, Qmax 135.0
% INFO    : Gen at bus 2119 - COW	: Pmax 174.0, Qmin -20.0, Qmax 20.0 -> Qmin -87.0, Qmax 87.0
% INFO    : Gen at bus 2124 - NG	: Pmax 345.0, Qmin -100.8, Qmax 120.0 -> Qmin -173.0, Qmax 173.0
% INFO    : Gen at bus 2125 - NG	: Pmax 227.0, Qmin -55.2, Qmax 70.0 -> Qmin -114.0, Qmax 114.0
% INFO    : Gen at bus 2126 - NG	: Pmax 25.0, Qmin -10.0, Qmax 20.0 -> Qmin -13.0, Qmax 20.0
% INFO    : Gen at bus 2127 - NG	: Pmax 54.0, Qmin -20.0, Qmax 20.0 -> Qmin -27.0, Qmax 27.0
% INFO    : Gen at bus 2128 - NG	: Pmax 77.0, Qmin -20.0, Qmax 20.0 -> Qmin -39.0, Qmax 39.0
% INFO    : Gen at bus 2129 - PEL	: Pmax 54.0, Qmin -10.0, Qmax 20.0 -> Qmin -27.0, Qmax 27.0
% INFO    : Gen at bus 2130 - NG	: Pmax 82.0, Qmin -10.0, Qmax 20.0 -> Qmin -41.0, Qmax 41.0
% INFO    : Gen at bus 2131 - NG	: Pmax 50.0, Qmin -10.0, Qmax 20.0 -> Qmin -25.0, Qmax 25.0
% INFO    : Gen at bus 2132 - PEL	: Pmax 45.0, Qmin -10.0, Qmax 30.0 -> Qmin -23.0, Qmax 30.0
% INFO    : Gen at bus 2133 - COW	: Pmax 70.0, Qmin -20.0, Qmax 40.0 -> Qmin -35.0, Qmax 40.0
% INFO    : Gen at bus 2134 - NG	: Pmax 117.0, Qmin -50.0, Qmax 70.0 -> Qmin -59.0, Qmax 70.0
% INFO    : Gen at bus 2139 - NG	: Pmax 114.0, Qmin -40.8, Qmax 40.8 -> Qmin -57.0, Qmax 57.0
% INFO    : Gen at bus 2142 - PEL	: Pmax 118.0, Qmin -40.0, Qmax 70.0 -> Qmin -59.0, Qmax 70.0
% INFO    : Gen at bus 2144 - PEL	: Pmax 136.0, Qmin -40.0, Qmax 70.0 -> Qmin -68.0, Qmax 70.0
% INFO    : Gen at bus 2148 - NG	: Pmax 195.0, Qmin -20.0, Qmax 13.2 -> Qmin -98.0, Qmax 98.0
% INFO    : Gen at bus 2329 - NG	: Pmax 57.0, Qmin -20.0, Qmax 30.0 -> Qmin -29.0, Qmax 30.0
% INFO    : Gen at bus 2330 - NG	: Pmax 33.0, Qmin -10.0, Qmax 20.0 -> Qmin -17.0, Qmax 20.0
% INFO    : Gen at bus 2332 - COW	: Pmax 41.0, Qmin -20.0, Qmax 10.0 -> Qmin -21.0, Qmax 21.0
% INFO    : Gen at bus 2333 - COW	: Pmax 168.0, Qmin -13.2, Qmax 13.2 -> Qmin -84.0, Qmax 84.0
% INFO    : Gen at bus 2334 - COW	: Pmax 46.0, Qmin -10.0, Qmax 20.0 -> Qmin -23.0, Qmax 23.0
% INFO    : Gen at bus 2335 - NG	: Pmax 110.0, Qmin -10.0, Qmax 20.0 -> Qmin -55.0, Qmax 55.0
% INFO    : Gen at bus 2250 - NG	: Pmax 1410.0, Qmin -540.0, Qmax 550.0 -> Qmin -705.0, Qmax 705.0
% INFO    : 
% INFO    : === Generator Setpoint Replacement Notes ===
% INFO    : Gen at bus 2114	: Pg=67.0, Qg=-11.0 -> Pg=46.0, Qg=10.0
% INFO    : Gen at bus 2114	: Vg=1.0 -> Vg=1.0
% INFO    : Gen at bus 2115	: Pg=67.0, Qg=-12.0 -> Pg=109.5, Qg=5.0
% INFO    : Gen at bus 2115	: Vg=1.0 -> Vg=1.0
% INFO    : Gen at bus 2116	: Pg=45.0, Qg=-1.0 -> Pg=72.0, Qg=0.0
% INFO    : Gen at bus 2116	: Vg=1.0 -> Vg=1.0
% INFO    : Gen at bus 2117	: Pg=42.0, Qg=-31.0 -> Pg=97.0, Qg=0.0
% INFO    : Gen at bus 2117	: Vg=1.0 -> Vg=1.0
...